/home/wangbin/WORK/hwy/test/nemo/NEMOGCM/NEMO/OPA_SRC/DIA/diawri_dimg.h90