/home/wangbin/WORK/hwy/test/nemo/NEMOGCM/NEMO/OPA_SRC/OBS/find_obs_proc.h90