/home/wangbin/WORK/hwy/test/nemo/NEMOGCM/NEMO/OPA_SRC/LDF/ldfdyn_c3d.h90