/home/wangbin/WORK/hwy/test/nemo/NEMOGCM/NEMO/OPA_SRC/LDF/ldfdyn_antarctic.h90