/home/wangbin/WORK/hwy/test/nemo/NEMOGCM/NEMO/LIM_SRC_2/limwri_dimg_2.h90