/home/wangbin/WORK/hwy/test/nemo/NEMOGCM/NEMO/OPA_SRC/LBC/mppini_2.h90