/home/wangbin/WORK/hwy/test/nemo/NEMOGCM/NEMO/OPA_SRC/OBC/obc_par_POMME_R025.h90