/home/wangbin/WORK/hwy/test/nemo/NEMOGCM/NEMO/OPA_SRC/OBC/obc_vectopt_loop_substitute.h90