/home/wangbin/WORK/hwy/test/nemo/NEMOGCM/NEMO/OPA_SRC/OBS/obs_level_search.h90