/home/wangbin/WORK/hwy/test/nemo/NEMOGCM/NEMO/OPA_SRC/OBS/obssst_io.h90