/home/wangbin/WORK/hwy/test/nemo/NEMOGCM/NEMO/OPA_SRC/par_AMM_12km.h90