/home/wangbin/WORK/hwy/test/nemo/NEMOGCM/NEMO/OPA_SRC/par_EEL_R2.h90