/home/wangbin/WORK/hwy/test/nemo/NEMOGCM/NEMO/OPA_SRC/par_GYRE.h90