/home/wangbin/WORK/hwy/test/nemo/NEMOGCM/NEMO/OPA_SRC/par_POMME_R025.h90