/home/wangbin/WORK/hwy/test/nemo/NEMOGCM/NEMO/OPA_SRC/SBC/tide.h90