/home/wangbin/WORK/hwy/test/nemo/NEMOGCM/NEMO/TOP_SRC/top_substitute.h90