/home/wangbin/WORK/hwy/test/nemo/NEMOGCM/NEMO/OPA_SRC/vectopt_loop_substitute.h90